212
 a = 22.104, b = 21.27, c = 100 
  P         6.640000        4.970000        4.350000
  F         7.050000        6.070000        3.190000
  F         7.250000        3.840000        3.320000
  F         6.220000        4.000000        5.620000
  F         6.070000        6.120000        5.390000
  F         8.130000        5.260000        4.980000
  F         5.130000        4.770000        3.710000
  N         5.770000        9.280000        3.720000
  C         5.700000       10.369999        4.450000
  N         6.870000       10.970000        4.500000
  C         7.840000       10.280000        3.810000
  C         7.080000        9.300000        3.310000
  H         4.760000       10.549999        4.920000
  H         8.800000       10.740000        3.890000
  H         7.560000        8.710000        2.560000
  C         4.700000        8.380000        3.270000
  C        7.080000       12.259999        5.190000
  C        6.970000       13.370000        4.150000
  C        5.600000       13.620000        3.520000
  C        5.160000       15.080000        3.610000
  H        5.270000        7.500000        3.020000
  H        4.060000        8.520000        2.410000
  H        4.250000        8.410000        4.250000
  H        8.040000       12.130001        5.670000
  H        6.380000       12.360000        6.010000
  H        7.340000       14.220000        4.720000
  H        7.710000       13.099999        3.410000
  H        4.940000       12.970000        4.090000
  H        5.670000       13.250000        2.500000
  H        5.610000       15.679999        2.820000
  H        4.100000       15.020000        3.380000
  H        5.290000       15.790000        4.420000
  C          0.000000        0.000000        0.000000
  C         -1.230000        0.710000        0.000000
  C         -1.230000        2.130000        0.000000
  C          0.000000        2.840000        0.000000
  C          2.460000        0.000000        0.000000
  C          1.230000        0.710000        0.000000
  C          1.230000        2.130000        0.000000
  C          2.460000        2.840000        0.000000
  C          4.910000        0.000000        0.000000
  C          3.680000        0.710000        0.000000
  C          3.680000        2.130000        0.000000
  C          4.910000        2.840000        0.000000
  C          7.370000        0.000000        0.000000
  C          6.140000        0.710000        0.000000
  C          6.140000        2.130000        0.000000
  C          7.370000        2.840000        0.000000
  C          9.820000        0.000000        0.000000
  C          8.600000        0.710000        0.000000
  C          8.600000        2.130000        0.000000
  C          9.820000        2.840000        0.000000
  C         12.280001        0.000000        0.000000
  C         11.050000        0.710000        0.000000
  C         11.050000        2.130000        0.000000
  C         12.280001        2.840000        0.000000
  C         14.740000        0.000000        0.000000
  C         13.509999        0.710000        0.000000
  C         13.509999        2.130000        0.000000
  C         14.740000        2.840000        0.000000
  C         17.190001        0.000000        0.000000
  C         15.959999        0.710000        0.000000
  C         15.959999        2.130000        0.000000
  C         17.190001        2.840000        0.000000
  C         19.650000        0.000000        0.000000
  C         18.420000        0.710000        0.000000
  C         18.420000        2.130000        0.000000
  C         19.650000        2.840000        0.000000
  C          0.000000        4.250000        0.000000
  C         -1.230000        4.960000        0.000000
  C         -1.230000        6.380000        0.000000
  C          0.000000        7.090000        0.000000
  C          2.460000        4.250000        0.000000
  C          1.230000        4.960000        0.000000
  C          1.230000        6.380000        0.000000
  C          2.460000        7.090000        0.000000
  C          4.910000        4.250000        0.000000
  C          3.680000        4.960000        0.000000
  C          3.680000        6.380000        0.000000
  C          4.910000        7.090000        0.000000
  C          7.370000        4.250000        0.000000
  C          6.140000        4.960000        0.000000
  C          6.140000        6.380000        0.000000
  C          7.370000        7.090000        0.000000
  C          9.820000        4.250000        0.000000
  C          8.600000        4.960000        0.000000
  C          8.600000        6.380000        0.000000
  C          9.820000        7.090000        0.000000
  C         12.280001        4.250000        0.000000
  C         11.050000        4.960000        0.000000
  C         11.050000        6.380000        0.000000
  C         12.280001        7.090000        0.000000
  C         14.740000        4.250000        0.000000
  C         13.509999        4.960000        0.000000
  C         13.509999        6.380000        0.000000
  C         14.740000        7.090000        0.000000
  C         17.190001        4.250000        0.000000
  C         15.959999        4.960000        0.000000
  C         15.959999        6.380000        0.000000
  C         17.190001        7.090000        0.000000
  C         19.650000        4.250000        0.000000
  C         18.420000        4.960000        0.000000
  C         18.420000        6.380000        0.000000
  C         19.650000        7.090000        0.000000
  C          0.000000        8.510000        0.000000
  C         -1.230000        9.220000        0.000000
  C         -1.230000       10.640000        0.000000
  C          0.000000       11.339999        0.000000
  C          2.460000        8.510000        0.000000
  C          1.230000        9.220000        0.000000
  C          1.230000       10.640000        0.000000
  C          2.460000       11.339999        0.000000
  C          4.910000        8.510000        0.000000
  C          3.680000        9.220000        0.000000
  C          3.680000       10.640000        0.000000
  C          4.910000       11.339999        0.000000
  C          7.370000        8.510000        0.000000
  C          6.140000        9.220000        0.000000
  C          6.140000       10.640000        0.000000
  C          7.370000       11.339999        0.000000
  C          9.820000        8.510000        0.000000
  C          8.600000        9.220000        0.000000
  C          8.600000       10.640000        0.000000
  C          9.820000       11.339999        0.000000
  C         12.280001        8.510000        0.000000
  C         11.050000        9.220000        0.000000
  C         11.050000       10.640000        0.000000
  C         12.280001       11.339999        0.000000
  C         14.740000        8.510000        0.000000
  C         13.509999        9.220000        0.000000
  C         13.509999       10.640000        0.000000
  C         14.740000       11.339999        0.000000
  C         17.190001        8.510000        0.000000
  C         15.959999        9.220000        0.000000
  C         15.959999       10.640000        0.000000
  C         17.190001       11.339999        0.000000
  C         19.650000        8.510000        0.000000
  C         18.420000        9.220000        0.000000
  C         18.420000       10.640000        0.000000
  C         19.650000       11.339999        0.000000
  C          0.000000       12.760000        0.000000
  C         -1.230000       13.470000        0.000000
  C         -1.230000       14.889999        0.000000
  C          0.000000       15.599999        0.000000
  C          2.460000       12.760000        0.000000
  C          1.230000       13.470000        0.000000
  C          1.230000       14.889999        0.000000
  C          2.460000       15.599999        0.000000
  C          4.910000       12.760000        0.000000
  C          3.680000       13.470000        0.000000
  C          3.680000       14.889999        0.000000
  C          4.910000       15.599999        0.000000
  C          7.370000       12.760000        0.000000
  C          6.140000       13.470000        0.000000
  C          6.140000       14.889999        0.000000
  C          7.370000       15.599999        0.000000
  C          9.820000       12.760000        0.000000
  C          8.600000       13.470000        0.000000
  C          8.600000       14.889999        0.000000
  C          9.820000       15.599999        0.000000
  C         12.280001       12.760000        0.000000
  C         11.050000       13.470000        0.000000
  C         11.050000       14.889999        0.000000
  C         12.280001       15.599999        0.000000
  C         14.740000       12.760000        0.000000
  C         13.509999       13.470000        0.000000
  C         13.509999       14.889999        0.000000
  C         14.740000       15.599999        0.000000
  C         17.190001       12.760000        0.000000
  C         15.959999       13.470000        0.000000
  C         15.959999       14.889999        0.000000
  C         17.190001       15.599999        0.000000
  C         19.650000       12.760000        0.000000
  C         18.420000       13.470000        0.000000
  C         18.420000       14.889999        0.000000
  C         19.650000       15.599999        0.000000
  C          0.000000       17.020000        0.000000
  C         -1.230000       17.730000        0.000000
  C         -1.230000       19.139999        0.000000
  C          0.000000       19.850000        0.000000
  C          2.460000       17.020000        0.000000
  C          1.230000       17.730000        0.000000
  C          1.230000       19.139999        0.000000
  C          2.460000       19.850000        0.000000
  C          4.910000       17.020000        0.000000
  C          3.680000       17.730000        0.000000
  C          3.680000       19.139999        0.000000
  C          4.910000       19.850000        0.000000
  C          7.370000       17.020000        0.000000
  C          6.140000       17.730000        0.000000
  C          6.140000       19.139999        0.000000
  C          7.370000       19.850000        0.000000
  C          9.820000       17.020000        0.000000
  C          8.600000       17.730000        0.000000
  C          8.600000       19.139999        0.000000
  C          9.820000       19.850000        0.000000
  C         12.280001       17.020000        0.000000
  C         11.050000       17.730000        0.000000
  C         11.050000       19.139999        0.000000
  C         12.280001       19.850000        0.000000
  C         14.740000       17.020000        0.000000
  C         13.509999       17.730000        0.000000
  C         13.509999       19.139999        0.000000
  C         14.740000       19.850000        0.000000
  C         17.190001       17.020000        0.000000
  C         15.959999       17.730000        0.000000
  C         15.959999       19.139999        0.000000
  C         17.190001       19.850000        0.000000
  C         19.650000       17.020000        0.000000
  C         18.420000       17.730000        0.000000
  C         18.420000       19.139999        0.000000
  C         19.650000       19.850000        0.000000
